Circuit: * C:\Users\Vikra\AppData\Local\LTspice\CMOS Inverter.asc

Limiting rise time of source v1 to 0.0005
Limiting fall time of source v1 to 0.0005
Direct Newton iteration for .op point succeeded.

Date: Fri Sep  1 12:25:43 2023
Total elapsed time: 0.199 seconds.

tnom = 27
temp = 27
method = modified trap
totiter = 2981
traniter = 2975
tranpoints = 1246
accept = 1196
rejected = 50
matrix size = 5
fillins = 0
solver = Normal
Avg thread counts: 2.3/4.1/4.2/2.3
Matrix Compiler1: off  [0.2]/0.2/0.3
Matrix Compiler2: off  [0.2]/0.3/0.2

