Circuit: * C:\Users\Vikra\AppData\Local\LTspice\CurrentMirror.asc

Direct Newton iteration for .op point succeeded.

Date: Mon Sep 25 19:52:38 2023
Total elapsed time: 0.217 seconds.

tnom = 27
temp = 27
method = modified trap
totiter = 2087
traniter = 2082
tranpoints = 1042
accept = 1042
rejected = 0
matrix size = 6
fillins = 0
solver = Normal
Avg thread counts: 2.9/4.9/4.9/2.9
Matrix Compiler1:       9 opcodes  0.3/[0.2]/0.3
Matrix Compiler2: 380 bytes object code size  0.3/0.3/[0.2]

