Circuit: * C:\Users\Vikra\AppData\Local\LTspice\differential pair.asc

Direct Newton iteration for .op point succeeded.

Date: Mon Sep 25 21:25:32 2023
Total elapsed time: 0.539 seconds.

tnom = 27
temp = 27
method = modified trap
totiter = 40036
traniter = 40030
tranpoints = 20016
accept = 12018
rejected = 7998
matrix size = 9
fillins = 0
solver = Normal
Avg thread counts: 1.1/1.2/1.2/1.1
Matrix Compiler1: off  [0.3]/0.4/0.4
Matrix Compiler2: 593 bytes object code size  0.3/0.4/[0.3]

