Circuit: * C:\Users\Vikra\AppData\Local\LTspice\Draft1.asc

vgs: Missing value, assumed 0V @ DC
vds: Missing value, assumed 0V @ DC
.OP point found by inspection.

Date: Tue Aug 15 22:09:00 2023
Total elapsed time: 0.146 seconds.

tnom = 27
temp = 27
method = trap
totiter = 10
traniter = 0
tranpoints = 0
accept = 0
rejected = 0
matrix size = 4
fillins = 0
solver = Normal
Avg thread counts: 12.0/0.0/12.0/12.0
Matrix Compiler1: 136 bytes object code size
Matrix Compiler2: 216 bytes object code size
