Circuit: * C:\Users\Vikra\AppData\Local\LTspice\Draft6.asc

Direct Newton iteration for .op point succeeded.

Date: Wed Aug 30 14:25:56 2023
Total elapsed time: 0.121 seconds.

tnom = 27
temp = 27
method = modified trap
totiter = 2087
traniter = 2082
tranpoints = 1042
accept = 1042
rejected = 0
matrix size = 9
fillins = 0
solver = Normal
Avg thread counts: 2.9/4.9/4.9/2.9
Matrix Compiler1:      17 opcodes  0.1/[0.1]/0.1
Matrix Compiler2: 593 bytes object code size  0.1/0.2/[0.1]

