Circuit: * C:\Users\Vikra\AppData\Local\LTspice\Draft7.asc

WARNING: Node VIN2 is floating.

Direct Newton iteration for .op point succeeded.

Date: Mon Sep 25 21:47:06 2023
Total elapsed time: 0.240 seconds.

tnom = 27
temp = 27
method = modified trap
totiter = 2105
traniter = 2086
tranpoints = 1044
accept = 1044
rejected = 0
matrix size = 10
fillins = 3
solver = Normal
Avg thread counts: 2.9/4.8/4.8/2.9
Matrix Compiler1: 792 bytes object code size  0.6/0.5/[0.4]
Matrix Compiler2: 870 bytes object code size  0.3/0.5/[0.3]

