Circuit: * C:\Users\Vikra\AppData\Local\LTspice\N-(E)Mosfet.asc

.step vgs=3
.step vgs=4
.step vgs=5

Date: Fri Sep  1 12:01:56 2023
Total elapsed time: 0.216 seconds.

tnom = 27
temp = 27
method = trap
totiter = 314
traniter = 0
tranpoints = 0
accept = 0
rejected = 0
matrix size = 4
fillins = 0
solver = Normal
Avg thread counts: 10.2/0.0/12.0/10.2
Matrix Compiler1: 136 bytes object code size  0.2/0.1/[0.1]
Matrix Compiler2: off  [0.1]/0.2/0.2

