Circuit: * C:\Users\Vikra\AppData\Local\LTspice\P-(E)Mosfet.asc

.dc sweep increment has wrong sign -- fixing...
.dc sweep increment has wrong sign -- fixing...
.OP point found by inspection.
.step v2=0
.step v2=-0.2
.step v2=-0.4
.step v2=-0.6
.step v2=-0.8
.step v2=-1
.step v2=-1.2
.step v2=-1.4
.step v2=-1.6
.step v2=-1.8

Date: Fri Sep  1 12:10:13 2023
Total elapsed time: 0.238 seconds.

tnom = 27
temp = 27
method = trap
totiter = 396
traniter = 0
tranpoints = 0
accept = 0
rejected = 0
matrix size = 4
fillins = 0
solver = Normal
Avg thread counts: 9.3/0.0/12.0/9.3
Matrix Compiler1: 136 bytes object code size  0.2/0.2/[0.1]
Matrix Compiler2: 216 bytes object code size  0.2/0.3/[0.1]

